<?xml version="1.0" encoding="UTF-8"?>

<!-- generated on 2022-06-05 11:03:19 by Eclipse SUMO netedit Version 1.12.0
-->

<routes xmlns:xsi="http://www.w3.org/2001/XMLSchema-instance" xsi:noNamespaceSchemaLocation="http://sumo.dlr.de/xsd/routes_file.xsd">
    <flow id="f_0" begin="0.00" from="-gneE1" to="-gneE0" end="3600.00" probability="0.50"/>
    <flow id="f_1" begin="0.00" color="0,4,255" from="-gneE2" to="-gneE0" end="3600.00" probability="0.50"/>
</routes>
